Circuit: * C:\Users\phili\OneDrive\Documents\Academic\RPI\Class\S2023\circuits_intro\labs\rpi-circuits-omega-gas-detector\potentiometer\Draft 1a.asc

Direct Newton iteration for .op point succeeded.

Date: Mon Feb 20 13:47:07 2023
Total elapsed time: 0.265 seconds.

tnom = 27
temp = 27
method = trap
totiter = 3
traniter = 0
tranpoints = 0
accept = 0
rejected = 0
matrix size = 3
fillins = 0
solver = Normal
Matrix Compiler1: 50 bytes object code size
Matrix Compiler2: 175 bytes object code size
