Circuit: * C:\Users\phili\OneDrive\Documents\Academic\RPI\Class\S2023\circuits_intro\labs\rpi-circuits-omega-gas-detector\Draft2.asc

WARNING: Specified period is not longer than the sum of Trise, Tfall, and Ton for v1.  Increasing period to 0.8
.OP point found by inspection.

Date: Sun Feb 26 02:42:19 2023
Total elapsed time: 0.044 seconds.

tnom = 27
temp = 27
method = modified trap
totiter = 2116
traniter = 2116
tranpoints = 1059
accept = 1056
rejected = 3
matrix size = 3
fillins = 0
solver = Normal
Matrix Compiler1:       3 opcodes  0.0/[0.0]/0.0
Matrix Compiler2: 175 bytes object code size  0.0/0.0/[0.0]

