Circuit: * C:\Users\phili\OneDrive\Documents\Academic\RPI\Class\S2023\circuits_intro\labs\rpi-circuits-omega-gas-detector\gas_detector_milestone1.asc

WARNING: Less than two connections to node NC_01.  This node is used by R:U1:1.
WARNING: Less than two connections to node NC_02.  This node is used by R:U2:1.
Direct Newton iteration for .op point succeeded.

Date: Wed Feb 22 19:50:26 2023
Total elapsed time: 0.179 seconds.

tnom = 27
temp = 27
method = modified trap
totiter = 2108
traniter = 2088
tranpoints = 1045
accept = 1045
rejected = 0
matrix size = 10
fillins = 0
solver = Normal
Matrix Compiler1: 382 bytes object code size  0.1/0.1/[0.1]
Matrix Compiler2: off  [0.1]/0.1/0.4

