Circuit: * C:\Users\Xavier\Documents\GitHub\rpi-circuits-omega-gas-detector\gas_detector_milestone1.asc

Fatal Error: Unknown subcircuit called in:
   xu1 a nc_01 b potentiometer rtot=10k wiper=.4
