Circuit: * C:\Users\phili\OneDrive\Documents\Academic\RPI\Class\S2023\circuits_intro\labs\rpi-circuits-omega-gas-detector\gas_detector_milestone1.asc

WARNING: Less than two connections to node NC_01.  This node is used by R:U1:1.
WARNING: Less than two connections to node NC_02.  This node is used by R:U4:1.
Direct Newton iteration failed to find .op point.  (Use ".option noopiter" to skip.)
Starting Gmin stepping
Gmin = 10
Gmin = 1.07374
Gmin = 0.115292
Gmin = 0.0123794
Gmin = 0.00132923
Gmin = 0.000142725
Gmin = 1.5325e-005
Gmin = 1.6455e-006
Gmin = 1.76685e-007
Gmin = 1.89714e-008
Gmin = 2.03704e-009
Gmin = 2.18725e-010
Gmin = 2.34854e-011
Gmin = 2.52173e-012
Gmin = 2.70769e-013
Gmin = 0
Gmin stepping succeeded in finding the operating point.

Semiconductor Device Operating Points:
                        --- Diodes ---
Name:    d:u3:2      d:u3:1        d2          d1
Model:    u3:x        u3:x          d           d
Id:     -4.98e-12   -2.57e-14    1.07e+12    1.07e+12
Vd:     -4.97e+00   -2.57e-02    2.50e+00    2.50e+00
Req:     1.00e-12    1.00e-12    1.00e-12    1.00e-12
CAP:     0.00e+00    0.00e+00    0.00e+00    0.00e+00



Date: Mon Feb 20 13:50:14 2023
Total elapsed time: 0.095 seconds.

tnom = 27
temp = 27
method = trap
totiter = 448
traniter = 0
tranpoints = 0
accept = 0
rejected = 0
matrix size = 9
fillins = 0
solver = Normal
Matrix Compiler1: 440 bytes object code size
Matrix Compiler2: off  [0.1]/0.1/0.1

