Circuit: * C:\Users\phili\OneDrive\Documents\Academic\RPI\Class\S2023\circuits_intro\labs\rpi-circuits-omega-gas-detector\gas_detector_milestone1.asc

WARNING: Less than two connections to node NC_01.  This node is used by R:U1:1.
WARNING: Less than two connections to node NC_02.  This node is used by R:U2:1.
Direct Newton iteration failed to find .op point.  (Use ".option noopiter" to skip.)
Starting Gmin stepping
Gmin = 10
Gmin = 1.07374
Gmin = 0.115292
Gmin = 0.0123794
Gmin = 0.00132923
Gmin = 0.000142725
Gmin = 1.5325e-005
Gmin = 1.6455e-006
Gmin = 1.76685e-007
Gmin = 1.89714e-008
Gmin = 2.03704e-009
Gmin = 2.18725e-010
Gmin = 2.34854e-011
Gmin = 2.52173e-012
Gmin = 2.70769e-013
Gmin = 0
Gmin stepping succeeded in finding the operating point.

Semiconductor Device Operating Points:
                        --- Diodes ---
Name:    d:u3:2      d:u3:1        d1
Model:    u3:x        u3:x        1n914
Id:     -4.96e-12   -4.51e-14    4.30e-03
Vd:     -4.95e+00   -4.50e-02    6.53e-01
Req:     1.00e-12    1.00e-12    1.05e+01
CAP:     0.00e+00    0.00e+00    1.90e-09



Date: Mon Feb 20 15:04:46 2023
Total elapsed time: 0.090 seconds.

tnom = 27
temp = 27
method = trap
totiter = 383
traniter = 0
tranpoints = 0
accept = 0
rejected = 0
matrix size = 10
fillins = 1
solver = Normal
Matrix Compiler1: 364 bytes object code size
Matrix Compiler2: 720 bytes object code size  0.1/0.1/[0.0]

