Circuit: * C:\Users\phili\OneDrive\Documents\Academic\RPI\Class\S2023\circuits_intro\labs\rpi-circuits-omega-gas-detector\ms3_first_order_filter_phasors.asc

Direct Newton iteration for .op point succeeded.

Date: Sat Apr 29 15:50:11 2023
Total elapsed time: 0.116 seconds.

tnom = 27
temp = 27
method = modified trap
totiter = 2091
traniter = 2088
tranpoints = 1045
accept = 1045
rejected = 0
matrix size = 3
fillins = 0
solver = Normal
Matrix Compiler1: 50 bytes object code size  0.1/0.1/[0.1]
Matrix Compiler2:      15 opcodes  0.1/[0.1]/0.1

